<?xml version="1.0"?>

<!-- generated on Fri Mar  4 15:17:21 2011 by SUMO netconvert Version dev-SVN-r9518
<?xml version="1.0" encoding="iso-8859-1"?>

<configuration xmlns:xsi="http://www.w3.org/2001/XMLSchema-instance" xsi:noNamespaceSchemaLocation="http://sumo.sf.net/xsd/netconvertConfiguration.xsd">

    <input>
        <osm-files value="kirchberg.osm.xml"/>
    </input>

    <output>
        <output-file value="kirchberg.net.xml"/>
    </output>

    <projection>
        <proj.utm value="true"/>
    </projection>

    <tls_building>
        <try-join-tls value="true"/>
    </tls_building>

    <ramp_guessing>
        <guess-ramps value="true"/>
    </ramp_guessing>

    <edge_removal>
        <edges-min-speed value="12"/>
        <remove-edges.by-vclass value="rail_slow,rail_fast,bicycle,pedestrian"/>
    </edge_removal>

    <processing>
        <dismiss-loading-errors value="true"/>
        <remove-isolated value="true"/>
        <no-turnarounds value="true"/>
        <no-internal-links value="true"/>
        <guess-roundabouts value="true"/>
    </processing>

    <report>
        <verbose value="true"/>
    </report>

</configuration>
-->

<net>

   <location netOffset="-290871.89,-5496457.48" convBoundary="0.00,0.00,11143.43,13401.74" origBoundary="6.104099,49.587854,6.259423,49.705792" projParameter="+proj=utm +zone=32 +ellps=WGS84 +datum=WGS84 +units=m +no_defs"/>

   <edge id="-10929865#0" from="847566778" to="75383586" priority="9" type="highway.primary" function="normal">
      <lanes>
         <lane id="-10929865#0_0" depart="1" maxspeed="13.89" length="24.07" shape="2271.91,2955.62 2248.85,2948.64"/>
         <lane id="-10929865#0_1" depart="0" maxspeed="13.89" length="24.07" shape="2272.83,2952.45 2249.81,2945.48"/>
      </lanes>
   </edge>
   <edge id="-10929865#1" from="847566796" to="847566778" priority="9" type="highway.primary" function="normal">
      <lanes>
         <lane id="-10929865#1_0" depart="1" maxspeed="13.89" length="8.06" shape="2279.81,2957.59 2272.03,2955.65"/>
         <lane id="-10929865#1_1" depart="0" maxspeed="13.89" length="8.06" shape="2280.67,2954.40 2272.82,2952.45"/>
      </lanes>
   </edge>
   <edge id="-10929865#2" from="847566767" to="847566796" priority="9" type="highway.primary" function="normal">
      <lanes>
         <lane id="-10929865#2_0" depart="1" maxspeed="13.89" length="25.35" shape="2304.39,2964.22 2279.92,2957.62"/>
         <lane id="-10929865#2_1" depart="0" maxspeed="13.89" length="25.35" shape="2305.20,2961.02 2280.72,2954.41"/>
      </lanes>
   </edge>
   <edge id="-10929865#3" from="847566780" to="847566767" priority="9" type="highway.primary" function="normal">
      <lanes>
         <lane id="-10929865#3_0" depart="1" maxspeed="13.89" length="28.85" shape="2332.54,2970.83 2317.70,2967.59 2304.39,2964.22"/>
         <lane id="-10929865#3_1" depart="0" maxspeed="13.89" length="28.85" shape="2333.22,2967.60 2318.40,2964.36 2305.20,2961.02"/>
      </lanes>
   </edge>
   <edge id="-10929867" from="75383586" to="97460617" priority="9" type="highway.primary" function="normal">
      <lanes>
         <lane id="-10929867_0" depart="1" maxspeed="13.89" length="24.19" shape="2248.06,2948.37 2225.48,2939.69"/>
         <lane id="-10929867_1" depart="0" maxspeed="13.89" length="24.19" shape="2249.24,2945.29 2226.66,2936.61"/>
      </lanes>
   </edge>
   <edge id="-13854636#0" from="129950916" to="129950848" priority="4" type="highway.residential" function="normal">
      <lanes>
         <lane id="-13854636#0_0" depart="1" maxspeed="13.89" length="73.25" shape="4634.54,5179.84 4691.43,5225.99"/>
      </lanes>
   </edge>
   <edge id="-13854636#1" from="75411736" to="129950916" priority="4" type="highway.residential" function="normal">
      <lanes>
         <lane id="-13854636#1_0" depart="1" maxspeed="13.89" length="214.21" shape="4463.00,5036.19 4627.19,5173.78"/>
      </lanes>
   </edge>
   <edge id="-13854651" from="392437605" to="621221509" priority="4" type="highway.residential" function="normal">
      <lanes>
         <lane id="-13854651_0" depart="1" maxspeed="13.89" length="9.32" shape="4050.24,4586.95 4043.39,4580.63"/>
      </lanes>
   </edge>
   <edge id="-14961052#0" from="495447584" to="75389891" priority="5" type="highway.unclassified" function="normal">
      <lanes>
         <lane id="-14961052#0_0" depart="1" maxspeed="22.22" length="80.96" shape="2369.93,3024.04 2359.91,3015.69 2346.92,3009.26 2315.51,2993.19 2299.74,2984.23"/>
      </lanes>
   </edge>
   <edge id="-14961052#1" from="443864710" to="495447584" priority="5" type="highway.unclassified" function="normal">
      <lanes>
         <lane id="-14961052#1_0" depart="1" maxspeed="22.22" length="88.08" shape="2407.24,3095.70 2412.59,3089.49 2421.80,3075.73 2419.45,3070.23 2408.17,3058.32 2388.52,3039.53 2377.95,3030.73"/>
      </lanes>
   </edge>
   <edge id="-14961052#2" from="289510398" to="443864710" priority="5" type="highway.unclassified" function="normal">
      <lanes>
         <lane id="-14961052#2_0" depart="1" maxspeed="22.22" length="38.56" shape="2384.90,3126.25 2387.95,3122.16 2390.30,3114.00 2397.20,3107.37 2407.24,3095.70"/>
      </lanes>
   </edge>
   <edge id="-17504205#0" from="245399614" to="245399612" priority="4" type="highway.residential" function="normal">
      <lanes>
         <lane id="-17504205#0_0" depart="1" maxspeed="13.89" length="44.29" shape="8021.94,3110.07 8037.69,3068.67"/>
      </lanes>
   </edge>
   <edge id="-17504205#1" from="245399608" to="245399614" priority="4" type="highway.residential" function="normal">
      <lanes>
         <lane id="-17504205#1_0" depart="1" maxspeed="13.89" length="236.65" shape="7955.39,3336.14 7960.17,3306.77 7967.36,3269.15 7972.02,3246.54 7980.65,3211.67 7995.61,3173.18 8021.90,3110.16"/>
      </lanes>
   </edge>
   <edge id="-20862083#0" from="304120936" to="224161664" priority="4" type="highway.residential" function="normal">
      <lanes>
         <lane id="-20862083#0_0" depart="1" maxspeed="13.89" length="216.54" shape="5186.81,5172.78 5323.93,5298.00 5339.64,5305.08 5352.76,5308.70"/>
      </lanes>
   </edge>
   <edge id="-20862083#1" from="1075236703" to="304120936" priority="4" type="highway.residential" function="normal">
      <lanes>
         <lane id="-20862083#1_0" depart="1" maxspeed="13.89" length="3.39" shape="5184.26,5170.52 5186.80,5172.78"/>
      </lanes>
   </edge>
   <edge id="-20862083#2" from="1075236605" to="1075236703" priority="4" type="highway.residential" function="normal">
      <lanes>
         <lane id="-20862083#2_0" depart="1" maxspeed="13.89" length="49.58" shape="5147.21,5137.58 5184.26,5170.52"/>
      </lanes>
   </edge>
   <edge id="-20862083#3" from="224161667" to="1075236605" priority="4" type="highway.residential" function="normal">
      <lanes>
         <lane id="-20862083#3_0" depart="1" maxspeed="13.89" length="43.66" shape="5114.58,5108.57 5147.21,5137.58"/>
      </lanes>
   </edge>
   <edge id="-20862083#4" from="224161668" to="224161667" priority="4" type="highway.residential" function="normal">
      <lanes>
         <lane id="-20862083#4_0" depart="1" maxspeed="13.89" length="73.26" shape="5052.38,5053.99 5053.78,5055.21 5107.46,5102.29"/>
      </lanes>
   </edge>
   <edge id="-20862181#0" from="621239433" to="224161667" priority="4" type="highway.residential" function="normal">
      <lanes>
         <lane id="-20862181#0_0" depart="1" maxspeed="13.89" length="27.04" shape="5132.28,5083.98 5114.32,5104.20"/>
      </lanes>
   </edge>
   <edge id="-20862181#1" from="964674356" to="621239433" priority="4" type="highway.residential" function="normal">
      <lanes>
         <lane id="-20862181#1_0" depart="1" maxspeed="13.89" length="25.62" shape="5149.30,5064.83 5132.28,5083.98"/>
      </lanes>
   </edge>
   <edge id="-20862181#2" from="302573959" to="964674356" priority="4" type="highway.residential" function="normal">
      <lanes>
         <lane id="-20862181#2_0" depart="1" maxspeed="13.89" length="11.44" shape="5156.90,5056.27 5149.30,5064.83"/>
      </lanes>
   </edge>
   <edge id="-20862181#3" from="224162219" to="302573959" priority="4" type="highway.residential" function="normal">
      <lanes>
         <lane id="-20862181#3_0" depart="1" maxspeed="13.89" length="97.78" shape="5221.27,4982.65 5156.91,5056.26"/>
      </lanes>
   </edge>
   <edge id="-20862249" from="636015111" to="224162328" priority="4" type="highway.residential" function="normal">
      <lanes>
         <lane id="-20862249_0" depart="1" maxspeed="13.89" length="5.99" shape="4957.96,5157.39 4954.06,5161.94"/>
      </lanes>
   </edge>
   <edge id="-20862444#0" from="505474150" to="224161669" priority="4" type="highway.residential" function="normal">
      <lanes>
         <lane id="-20862444#0_0" depart="1" maxspeed="13.89" length="57.70" shape="4891.30,5000.98 4925.36,4961.80 4929.16,4957.43"/>
      </lanes>
   </edge>
   <edge id="-20862444#1" from="549780393" to="505474150" priority="4" type="highway.residential" function="normal">
      <lanes>
         <lane id="-20862444#1_0" depart="1" maxspeed="13.89" length="58.63" shape="4846.52,5052.50 4884.98,5008.24"/>
      </lanes>
   </edge>
   <edge id="-20862582#0" from="729817911" to="224160276" priority="7" type="highway.secondary" function="normal">
      <lanes>
         <lane id="-20862582#0_0" depart="1" maxspeed="13.89" length="15.28" shape="4582.42,4722.25 4584.74,4737.35"/>
         <lane id="-20862582#0_1" depart="0" maxspeed="13.89" length="15.28" shape="4579.16,4722.75 4581.48,4737.86"/>
      </lanes>
   </edge>
   <edge id="-20862582#1" from="348304247" to="729817911" priority="7" type="highway.secondary" function="normal">
      <lanes>
         <lane id="-20862582#1_0" depart="1" maxspeed="13.89" length="178.40" shape="4526.48,4547.45 4530.59,4554.24 4557.28,4595.84 4571.78,4646.75 4578.02,4693.64 4581.63,4717.15"/>
         <lane id="-20862582#1_1" depart="0" maxspeed="13.89" length="178.40" shape="4523.65,4549.16 4527.76,4555.95 4554.24,4597.21 4568.61,4647.66 4574.75,4694.07 4577.66,4713.02"/>
      </lanes>
   </edge>
   <edge id="-20862582#2" from="224165368" to="348304247" priority="7" type="highway.secondary" function="normal">
      <lanes>
         <lane id="-20862582#2_0" depart="1" maxspeed="13.89" length="175.29" shape="4461.11,4388.34 4468.47,4423.24 4471.27,4447.72 4482.55,4477.13 4499.37,4502.65 4526.48,4547.45"/>
         <lane id="-20862582#2_1" depart="0" maxspeed="13.89" length="175.29" shape="4457.88,4389.02 4465.24,4423.92 4468.04,4448.51 4479.60,4478.65 4496.62,4504.47 4523.65,4549.16"/>
      </lanes>
   </edge>
   <edge id="-20862582#3" from="502899556" to="224165368" priority="7" type="highway.secondary" function="normal">
      <lanes>
         <lane id="-20862582#3_0" depart="1" maxspeed="13.89" length="318.65" shape="4340.60,4098.48 4337.01,4127.94 4339.73,4167.59 4347.17,4204.42 4368.43,4248.22 4422.41,4324.08 4460.49,4381.25"/>
         <lane id="-20862582#3_1" depart="0" maxspeed="13.89" length="318.65" shape="4337.33,4098.08 4333.69,4127.85 4336.44,4167.82 4344.01,4205.48 4365.46,4249.66 4419.72,4325.99 4457.74,4383.08"/>
      </lanes>
   </edge>
   <edge id="-20862582#4" from="70600564" to="502899556" priority="7" type="highway.secondary" function="normal">
      <lanes>
         <lane id="-20862582#4_0" depart="1" maxspeed="13.89" length="72.80" shape="4349.70,4027.32 4347.99,4030.03 4342.65,4081.69 4340.60,4098.48"/>
         <lane id="-20862582#4_1" depart="0" maxspeed="13.89" length="72.80" shape="4346.92,4025.56 4344.78,4028.92 4339.37,4081.35 4337.33,4098.08"/>
      </lanes>
   </edge>
   <edge id="-20862673" from="224166148" to="224165753" priority="4" type="highway.residential" function="normal">
      <lanes>
         <lane id="-20862673_0" depart="1" maxspeed="13.89" length="225.38" shape="4635.16,4640.76 4673.57,4691.74 4726.24,4768.09 4759.47,4828.33"/>
      </lanes>
   </edge>
   <edge id="-20862960#0" from="564804579" to="310741359" priority="7" type="highway.secondary" function="normal">
      <lanes>
         <lane id="-20862960#0_0" depart="1" maxspeed="13.89" length="17.38" shape="5330.90,4874.38 5315.40,4882.17"/>
         <lane id="-20862960#0_1" depart="0" maxspeed="13.89" length="17.38" shape="5329.46,4871.41 5313.91,4879.22"/>
      </lanes>
   </edge>
   <edge id="-20862960#1" from="310741361" to="564804579" priority="7" type="highway.secondary" function="normal">
      <lanes>
         <lane id="-20862960#1_0" depart="1" maxspeed="13.89" length="37.64" shape="5363.06,4854.52 5342.62,4868.64 5330.90,4874.38"/>
         <lane id="-20862960#1_1" depart="0" maxspeed="13.89" length="37.64" shape="5361.18,4851.80 5340.74,4865.92 5329.46,4871.41"/>
      </lanes>
   </edge>
   <edge id="-20862960#2" from="331558573" to="310741361" priority="7" type="highway.secondary" function="normal">
      <lanes>
         <lane id="-20862960#2_0" depart="1" maxspeed="13.89" length="19.85" shape="5374.07,4831.61 5373.34,4837.75 5366.71,4850.40"/>
         <lane id="-20862960#2_1" depart="0" maxspeed="13.89" length="19.85" shape="5370.79,4831.22 5370.13,4836.76 5363.79,4848.87"/>
      </lanes>
   </edge>
   <edge id="-20862960#3" from="564804576" to="331558573" priority="7" type="highway.secondary" function="normal">
      <lanes>
         <lane id="-20862960#3_0" depart="1" maxspeed="13.89" length="169.88" shape="5291.49,4674.83 5306.52,4703.55 5359.17,4787.88 5376.00,4815.24 5375.19,4822.16"/>
         <lane id="-20862960#3_1" depart="0" maxspeed="13.89" length="169.88" shape="5288.57,4676.36 5303.60,4705.08 5356.37,4789.62 5372.59,4815.99 5371.91,4821.77"/>
      </lanes>
   </edge>
   <edge id="-20862960#4" from="70600578" to="564804576" priority="7" type="highway.secondary" function="normal">
      <lanes>
         <lane id="-20862960#4_0" depart="1" maxspeed="13.89" length="571.05" shape="4875.18,4273.37 4883.18,4279.84 4913.68,4301.58 4938.65,4327.02 4964.52,4356.17 5043.08,4402.23 5093.54,4447.16 5115.95,4472.12 5142.27,4497.40 5191.92,4532.79 5231.07,4564.12 5251.13,4592.41 5283.80,4659.80"/>
         <lane id="-20862960#4_1" depart="0" maxspeed="13.89" length="571.05" shape="4873.10,4275.94 4881.10,4282.41 4911.52,4304.09 4936.30,4329.33 4962.40,4358.75 5041.13,4404.91 5091.35,4449.62 5113.49,4474.32 5139.99,4499.78 5190.01,4535.47 5228.65,4566.41 5248.44,4594.32 5280.88,4661.33"/>
      </lanes>
   </edge>
   <edge id="-20863066#0" from="253124500" to="224169311" priority="9" type="highway.primary" function="normal">
      <lanes>
         <lane id="-20863066#0_0" depart="1" maxspeed="27.78" length="593.99" shape="5894.60,4002.95 5874.77,4010.74 5824.20,4032.39 5728.55,4076.77 5656.50,4096.43 5597.48,4106.86 5535.86,4102.08 5497.49,4108.60 5452.55,4126.66 5380.18,4172.49 5342.71,4192.73"/>
         <lane id="-20863066#0_1" depart="0" maxspeed="27.78" length="593.99" shape="5893.39,3999.88 5873.56,4007.67 5822.90,4029.35 5727.16,4073.77 5655.63,4093.25 5597.32,4103.54 5535.71,4098.76 5496.59,4105.41 5451.04,4123.71 5378.41,4169.70 5341.14,4189.83"/>
      </lanes>
   </edge>
   <edge id="-20863066#1" from="224169973" to="253124500" priority="9" type="highway.primary" function="normal">
      <lanes>
         <lane id="-20863066#1_0" depart="1" maxspeed="27.78" length="94.86" shape="5993.32,3969.34 5952.15,3981.97 5903.54,3999.58"/>
         <lane id="-20863066#1_1" depart="0" maxspeed="27.78" length="94.86" shape="5992.36,3966.19 5951.18,3978.81 5902.41,3996.48"/>
      </lanes>
   </edge>
   <edge id="-22768825" from="60842129" to="32020736" priority="9" type="highway.primary" function="normal">
      <lanes>
         <lane id="-22768825_0" depart="1" maxspeed="27.78" length="51.83" shape="8367.37,6231.79 8396.60,6260.25 8404.95,6267.28"/>
         <lane id="-22768825_1" depart="0" maxspeed="27.78" length="51.83" shape="8365.07,6234.15 8394.30,6262.61 8402.82,6269.80"/>
      </lanes>
   </edge>
   <edge id="-22982458#0" from="255525537" to="247754211" priority="4" type="highway.residential" function="normal">
      <lanes>
         <lane id="-22982458#0_0" depart="1" maxspeed="13.89" length="209.72" shape="4722.25,3751.18 4690.56,3879.93 4678.33,3920.30 4659.76,3949.90"/>
      </lanes>
   </edge>
   <edge id="-22982458#1" from="247754214" to="255525537" priority="4" type="highway.residential" function="normal">
      <lanes>
         <lane id="-22982458#1_0" depart="1" maxspeed="13.89" length="137.85" shape="4645.73,3667.20 4730.87,3693.82 4724.06,3741.99"/>
      </lanes>
   </edge>
   <edge id="-22982460#0" from="408873719" to="247754202" priority="4" type="highway.residential" function="normal">
      <lanes>
         <lane id="-22982460#0_0" depart="1" maxspeed="13.89" length="121.09" shape="3839.98,3332.69 3872.27,3343.92 3936.36,3402.61"/>
      </lanes>
   </edge>
   <edge id="-22982460#1+34872382" from="247754228" to="408873719" priority="4" type="" function="normal">
      <lanes>
         <lane id="-22982460#1+34872382_0" depart="1" maxspeed="13.89" length="127.39" shape="3780.94,3453.47 3825.66,3334.19"/>
         <lane id="-22982460#1+34872382_1" depart="0" maxspeed="13.89" length="127.39" shape="3784.03,3454.63 3828.75,3335.35"/>
      </lanes>
   </edge>
   <edge id="-22982460#2" from="247754229" to="247754228" priority="4" type="highway.residential" function="normal">
      <lanes>
         <lane id="-22982460#2_0" depart="1" maxspeed="13.89" length="99.64" shape="3878.38,3510.41 3790.23,3463.95"/>
      </lanes>
   </edge>
   <edge id="-22982460#3" from="247754203" to="247754229" priority="4" type="highway.residential" function="normal">
      <lanes>
         <lane id="-22982460#3_0" depart="1" maxspeed="13.89" length="22.49" shape="3907.19,3501.48 3886.95,3511.30"/>
      </lanes>
   </edge>
   <edge id="-22982463" from="247754235" to="247754231" priority="4" type="highway.residential" function="normal">
      <lanes>
         <lane id="-22982463_0" depart="1" maxspeed="13.89" length="153.87" shape="4004.04,3479.92 4150.30,3527.72"/>
      </lanes>
   </edge>
   <edge id="-22982468#0" from="308504632" to="408871712" priority="4" type="highway.residential" function="normal">
      <lanes>
         <lane id="-22982468#0_0" depart="1" maxspeed="13.89" length="84.05" shape="3980.56,3361.94 4006.66,3337.75 4020.82,3319.47 4029.43,3295.63"/>
      </lanes>
   </edge>
   <edge id="-22982468#1" from="247754202" to="308504632" priority="4" type="highway.residential" function="normal">
      <lanes>
         <lane id="-22982468#1_0" depart="1" maxspeed="13.89" length="46.90" shape="3940.74,3402.49 3973.48,3368.91"/>
      </lanes>
   </edge>
   <edge id="-22982468#2" from="247754203" to="247754202" priority="4" type="highway.residential" function="normal">
      <lanes>
         <lane id="-22982468#2_0" depart="1" maxspeed="13.89" length="89.30" shape="3909.55,3494.47 3913.42,3463.88 3935.71,3409.83"/>
      </lanes>
   </edge>
   <edge id="-22982468#3" from="247754230" to="247754203" priority="4" type="highway.residential" function="normal">
      <lanes>
         <lane id="-22982468#3_0" depart="1" maxspeed="13.89" length="249.24" shape="4106.46,3648.11 4039.65,3614.31 3965.59,3568.25 3927.99,3538.25 3911.32,3502.94"/>
      </lanes>
   </edge>
   <edge id="-22982468#4" from="247754206" to="247754230" priority="4" type="highway.residential" function="normal">
      <lanes>
         <lane id="-22982468#4_0" depart="1" maxspeed="13.89" length="192.96" shape="4294.30,3724.02 4171.98,3677.95 4115.25,3652.33"/>
      </lanes>
   </edge>
   <edge id="-22982472#0" from="247754252" to="247754247" priority="4" type="highway.residential" function="normal">
      <lanes>
         <lane id="-22982472#0_0" depart="1" maxspeed="13.89" length="47.92" shape="4574.49,3698.59 4621.80,3706.18"/>
      </lanes>
   </edge>
   <edge id="-22982472#1" from="309123453" to="247754252" priority="4" type="highway.residential" function="normal">
      <lanes>
         <lane id="-22982472#1_0" depart="1" maxspeed="13.89" length="218.10" shape="4362.33,3655.17 4522.65,3702.89 4573.29,3698.54"/>
      </lanes>
   </edge>
   <edge id="-22982474#0" from="326843430" to="408908805" priority="4" type="highway.residential" function="normal">
      <lanes>
         <lane id="-22982474#0_0" depart="1" maxspeed="13.89" length="16.73" shape="3205.26,3029.90 3202.89,3013.34"/>
      </lanes>
   </edge>
   <edge id="-22982474#1" from="247754262" to="326843430" priority="4" type="highway.residential" function="normal">
      <lanes>
         <lane id="-22982474#1_0" depart="1" maxspeed="13.89" length="155.66" shape="3277.22,3159.17 3281.29,3142.02 3274.73,3108.59 3251.06,3066.96 3229.02,3038.71 3213.36,3038.90 3209.36,3036.65"/>
      </lanes>
   </edge>
   <edge id="-22982474#2" from="247754264" to="247754262" priority="4" type="highway.residential" function="normal">
      <lanes>
         <lane id="-22982474#2_0" depart="1" maxspeed="13.89" length="177.26" shape="3325.95,3273.37 3233.17,3227.71 3274.10,3166.24"/>
      </lanes>
   </edge>
   <edge id="-22982477#0" from="247754265" to="247754262" priority="4" type="highway.residential" function="normal">
      <lanes>
         <lane id="-22982477#0_0" depart="1" maxspeed="13.89" length="43.72" shape="3320.40,3185.98 3281.06,3166.92"/>
      </lanes>
   </edge>
   <edge id="-22982477#1" from="247754266" to="247754265" priority="4" type="highway.residential" function="normal">
      <lanes>
         <lane id="-22982477#1_0" depart="1" maxspeed="13.89" length="57.89" shape="3380.92,3215.58 3377.12,3213.72 3328.93,3190.13"/>
      </lanes>
   </edge>
   <edge id="-22982478" from="247754267" to="247754265" priority="4" type="highway.residential" function="normal">
      <lanes>
         <lane id="-22982478_0" depart="1" maxspeed="13.89" length="74.86" shape="3363.76,3116.69 3329.01,3183.00"/>
      </lanes>
   </edge>
   <edge id="-23378710" from="253124511" to="253124500" priority="4" type="highway.residential" function="normal">
      <lanes>
         <lane id="-23378710_0" depart="1" maxspeed="13.89" length="271.22" shape="6111.48,4154.87 6086.36,4147.15 6043.57,4132.64 5997.51,4114.53 5973.78,4100.43 5954.35,4084.29 5924.33,4049.95 5903.66,4015.83 5898.81,4004.96"/>
      </lanes>
   </edge>
   <edge id="-23509771" from="25762192" to="25762193" priority="4" type="highway.residential" function="normal">
      <lanes>
         <lane id="-23509771_0" depart="1" maxspeed="13.89" length="49.05" shape="7880.29,2759.28 7925.34,2739.86"/>
      </lanes>
   </edge>
   <edge id="-23509875#0" from="254604808" to="244118316" priority="7" type="highway.secondary" function="normal">
      <lanes>
         <lane id="-23509875#0_0" depart="1" maxspeed="25.00" length="124.82" shape="6743.31,2601.21 6757.68,2587.23 6762.57,2581.77 6776.79,2563.38 6807.27,2496.41"/>
         <lane id="-23509875#0_1" depart="0" maxspeed="25.00" length="124.82" shape="6745.61,2603.57 6759.98,2589.59 6765.02,2583.98 6779.64,2565.10 6810.27,2497.77"/>
      </lanes>
   </edge>
   <edge id="-23509875#1" from="389005827" to="254604808" priority="7" type="highway.secondary" function="normal">
      <lanes>
         <lane id="-23509875#1_0" depart="1" maxspeed="25.00" length="311.07" shape="6488.86,2776.38 6516.28,2766.13 6537.53,2757.35 6558.71,2744.49 6743.18,2601.32"/>
         <lane id="-23509875#1_1" depart="0" maxspeed="25.00" length="311.07" shape="6489.97,2779.49 6517.44,2769.22 6538.79,2760.40 6560.42,2747.32 6745.20,2603.93"/>
      </lanes>
   </edge>
   <edge id="-23509875#2" from="254605470" to="389005827" priority="7" type="highway.secondary" function="normal">
      <lanes>
         <lane id="-23509875#2_0" depart="1" maxspeed="25.00" length="531.07" shape="5973.08,2896.31 6326.52,2831.83 6368.34,2819.24 6488.77,2776.41"/>
         <lane id="-23509875#2_1" depart="0" maxspeed="25.00" length="531.07" shape="5973.67,2899.56 6327.11,2835.08 6369.29,2822.40 6489.93,2779.50"/>
      </lanes>
   </edge>
   <edge id="-23595109#0" from="1152799499" to="255525537" priority="4" type="highway.residential" function="normal">
      <lanes>
         <lane id="-23595109#0_0" depart="1" maxspeed="13.89" length="114.71" shape="4835.79,3782.44 4726.06,3749.01"/>
      </lanes>
   </edge>
   <edge id="-23595109#1" from="255525579" to="1152799499" priority="4" type="highway.residential" function="normal">
      <lanes>
         <lane id="-23595109#1_0" depart="1" maxspeed="13.89" length="34.77" shape="4878.14,3795.35 4844.89,3785.21"/>
      </lanes>
   </edge>
   <edge id="-23595109#2" from="255525581" to="255525579" priority="4" type="highway.residential" function="normal">
      <lanes>
         <lane id="-23595109#2_0" depart="1" maxspeed="13.89" length="39.23" shape="4918.44,3793.24 4896.65,3796.11 4879.41,3795.56"/>
      </lanes>
   </edge>
   <edge id="-23595115#0" from="408858148" to="255525775" priority="4" type="highway.residential" function="normal">
      <lanes>
         <lane id="-23595115#0_0" depart="1" maxspeed="13.89" length="130.70" shape="5041.10,3694.56 5034.83,3667.33 4937.22,3635.24"/>
      </lanes>
   </edge>
   <edge id="-23595115#1" from="255525825" to="408858148" priority="4" type="highway.residential" function="normal">
      <lanes>
         <lane id="-23595115#1_0" depart="1" maxspeed="13.89" length="9.43" shape="5044.93,3713.98 5043.17,3704.72"/>
      </lanes>
   </edge>
   <edge id="-23595116#0" from="255525763" to="255525764" priority="4" type="highway.residential" function="normal">
      <lanes>
         <lane id="-23595116#0_0" depart="1" maxspeed="13.89" length="64.77" shape="5087.48,3716.13 5100.17,3779.65"/>
      </lanes>
   </edge>
   <edge id="-23595116#1" from="408858148" to="255525763" priority="4" type="highway.residential" function="normal">
      <lanes>
         <lane id="-23595116#1_0" depart="1" maxspeed="13.89" length="22.80" shape="5050.73,3698.19 5072.25,3705.70"/>
      </lanes>
   </edge>
   <edge id="-23595118#0" from="255525775" to="255525586" priority="4" type="highway.residential" function="normal">
      <lanes>
         <lane id="-23595118#0_0" depart="1" maxspeed="13.89" length="29.67" shape="4933.01,3627.18 4941.96,3598.89"/>
      </lanes>
   </edge>
   <edge id="-23595118#1" from="255525728" to="255525775" priority="4" type="highway.residential" function="normal">
      <lanes>
         <lane id="-23595118#1_0" depart="1" maxspeed="13.89" length="102.96" shape="4914.46,3735.89 4909.90,3702.17 4930.17,3636.28"/>
      </lanes>
   </edge>
   <edge id="-23595118#2" from="255525581" to="255525728" priority="4" type="highway.residential" function="normal">
      <lanes>
         <lane id="-23595118#2_0" depart="1" maxspeed="13.89" length="41.56" shape="4920.69,3786.51 4915.67,3745.25"/>
      </lanes>
   </edge>
   <edge id="-23595118#3" from="255525688" to="255525581" priority="4" type="highway.residential" function="normal">
      <lanes>
         <lane id="-23595118#3_0" depart="1" maxspeed="13.89" length="117.38" shape="5022.39,3858.79 4924.49,3794.02"/>
      </lanes>
   </edge>
   <edge id="-23595122" from="255526070" to="255526019" priority="4" type="highway.residential" function="normal">
      <lanes>
         <lane id="-23595122_0" depart="1" maxspeed="13.89" length="155.31" shape="5514.74,3943.20 5507.05,3817.70 5515.81,3789.45"/>
      </lanes>
   </edge>
   <edge id="-23595123#0" from="255526070" to="255526091" priority="4" type="highway.residential" function="normal">
      <lanes>
         <lane id="-23595123#0_0" depart="1" maxspeed="13.89" length="12.37" shape="5512.52,3950.49 5500.28,3952.31"/>
      </lanes>
   </edge>
   <edge id="-23595123#1" from="255526092" to="255526070" priority="4" type="highway.residential" function="normal">
      <lanes>
         <lane id="-23595123#1_0" depart="1" maxspeed="13.89" length="24.28" shape="5545.96,3945.03 5522.01,3948.99"/>
      </lanes>
   </edge>
   <edge id="-23595150" from="25762248" to="269119777" priority="4" type="highway.residential" function="normal">
      <lanes>
         <lane id="-23595150_0" depart="1" maxspeed="13.89" length="1120.99" shape="7907.54,3362.37 7887.59,3365.69 7860.14,3356.02 7841.15,3350.69 7817.85,3354.31 7226.40,3503.90 7243.89,3567.37 7249.60,3599.98 7305.14,3600.19 7360.41,3619.13 7543.13,3712.91"/>
      </lanes>
   </edge>
   <edge id="-23734487" from="75385559" to="75386137" priority="9" type="highway.primary" function="normal">
      <lanes>
         <lane id="-23734487_0" depart="1" maxspeed="13.89" length="25.77" shape="2841.11,3129.38 2815.34,3129.31"/>
         <lane id="-23734487_1" depart="0" maxspeed="13.89" length="25.77" shape="2841.12,3126.08 2815.34,3126.01"/>
      </lanes>
   </edge>
   <edge id="-23734489" from="35350752" to="75385559" priority="9" type="highway.primary" function="normal">
      <lanes>
         <lane id="-23734489_0" depart="1" maxspeed="13.89" length="12.14" shape="2852.84,3131.98 2851.74,3131.47 2841.42,3129.41"/>
         <lane id="-23734489_1" depart="0" maxspeed="13.89" length="12.14" shape="2854.24,3129.00 2852.78,3128.31 2842.06,3126.18"/>
      </lanes>
   </edge>
   <edge id="-24234049#0" from="1110328230" to="262391787" priority="4" type="highway.residential" function="normal">
      <lanes>
         <lane id="-24234049#0_0" depart="1" maxspeed="13.89" length="4.99" shape="3441.55,4502.20 3445.90,4504.66"/>
      </lanes>
   </edge>
   <edge id="-24234049#1" from="540212538" to="1110328230" priority="4" type="highway.residential" function="normal">
      <lanes>
         <lane id="-24234049#1_0" depart="1" maxspeed="13.89" length="246.26" shape="3228.36,4378.95 3355.48,4451.79 3441.55,4502.20"/>
      </lanes>
   </edge>
   <edge id="-24234049#2" from="621243706" to="540212538" priority="4" type="highway.residential" function="normal">
      <lanes>
         <lane id="-24234049#2_0" depart="1" maxspeed="13.89" length="4.72" shape="3224.42,4376.01 3228.19,4378.84"/>
      </lanes>