<?xml version="1.0" encoding="utf-8"?><routes>
<vType accel="2" color="1,0,0" decel="7" id="porsche" length="4" maxSpeed="50" sigma="0.6"/>
<vType accel="1.7" color="0.4,1,0.4" decel="6" id="206" length="4" maxSpeed="40" sigma="0.5"/>
<vType accel="1.7" color="0.4,0,1" decel="6" id="306" length="4.5" maxSpeed="40" sigma="0.5"/>
<vType accel="1.4" color="0.4,0.8,1" decel="6" id="twingo" length="3.5" maxSpeed="35" sigma="0.8"/>
<vType accel="1.1" color="0.9,0.9,0.9" decel="5" id="cx" length="5" maxSpeed="35" sigma="0.5"/>
<vType accel="1.05" color="0.1,0.1,0.1" decel="4" id="truck" length="15" maxSpeed="30" sigma="0"/>
<vehicle id="l1410_h1_c0" type="306" depart="12">
<route edges="26732375 26732338 24784778 154771667 28042458 28042455 4015999 24784799 24784800#0 24784800#1-AddedOnRampEdge 24784800#1 24784800#1-AddedOffRampEdge 24784800#2 24784800#3-AddedOnRampEdge 24784800#3 154771680 154771699 154771699-AddedOffRampEdge 9094255 9094255-AddedOffRampEdge 4065380 27108730 27108708 31477867-AddedOnRampEdge 31477867 31477868-AddedOnRampEdge 31477868 33927221 33927222 9096558 9096571 9096625 9507924 9507920 33927393 33927395 9508026 9508022 9507744 8597092#0 8597092#1 8597089#7 8597089#8 8597089#9 8597089#10 8597089#11 8597089#12 8597089#0 8597089#1 8597089#2 8597089#3 26576348 83063516 107476941 107476943#0 107476943#1 96564820 9197491 -126511825 -9197495 9197492#2 -95542175 39461521#0 39461521#1 39461521#2 95932236 -8906632#1 -8906632#0"/>
</vehicle>
<vehicle id="l1420_h1_c0" type="cx" depart="15">
<route edges="24430095 24430094#0 24430094#0-AddedOffRampEdge 24430094#1 24430094#2-AddedOnRampEdge 24430094#2 24430094#2-AddedOffRampEdge 24430094#3 24430094#4-AddedOnRampEdge 24430094#4 24775113 24775112#0 24775112#0-AddedOffRampEdge 24775112#1 24477181 24477182#0 24477182#1-AddedOnRampEdge 24477182#1 27911159 4015963#0 4015963#0-AddedOffRampEdge 4015963#1 4015963#2-AddedOnRampEdge 4015963#2 4015963#2-AddedOffRampEdge 4015963#3 4015963#4-AddedOnRampEdge 4015963#4 4015977#0 4015977#0-AddedOffRampEdge 9231977 -160418339 -114297212 9231634#0 9231634#1 -24939829#8 -24939829#7 -24939829#6 -24939829#5 -24939829#4 -24939829#3 -24939856#1 -24939856#0 -24939863 -50017569#4 -50017569#3 -50017569#2 -50017569#1 -50017569#0 -79232989#1 -79232989#0 27467400 9230578#4 79232987 -95510758#3 -95510758#2 -95510758#1 -95510758#0 -73499031 73301439 73299382#1 73299382#2 73299382#3 73299382#4 73299382#5 73502674#0 73502674#1 9069577#1 9069577#2 52575532#0 52575532#1 50051451#0 50051451#1 9072539#0 9072539#1 -126310812#2+-58880016#4 -58880016#3 -58880016#2 -58880016#1 -58880016#0 25204251#0 25204251#1"/>
</vehicle>
<vehicle id="resdidentialXXX_h1_c3" type="twingo" depart="15">
<route edges="23899067#16 157605272 27922250#0 27922250#1 23910388#1 23910388#2 23910388#3 75621788#0 75621788#1 -138648410 -132442663#8 -132442663#7 -132442663#6 -132442663#5 -132442663#4 -132442663#3 -132442663#2 -132442663#1 -132442663#0 -75621286#2 -75621286#1 -75621286#0 75621294#0 75621294#1 88453028 25746712#0 25746712#1 25746712#2 25746712#3 -150093561 -150093552 -150093555 -150093548#2 -150093548#1 -150093548#0 150093529#3 150093529#4 -126342682#1 -126342682#0 -55891537 50769133 117794633 117794634 52836647#0 52836647#1 52836646#0 52836646#1 96681649#0 96681649#1 58482182#0 58482182#1 58482182#2 58482182#3 58482182#4 58482182#5 58482182#6 50725795#0 50725795#1 50725795#2 127024370 37799044#0 37799044#1 37799044#2 127024374 127086055 9882508 49248915 71197436#0 71197436#0-AddedOffRampEdge 71197436#1 71197436#2 55444657#0 55444657#1 55444657#2 55444657#3 55444657#4 55444657#5 55444657#6 55444657#7 55444657#8 56640721 56640726#0 56640726#1 56640726#2 56640726#3 48962303#0 48962303#1 56640730 34219190 56645302 56640716#0 56640716#1 56640716#2 56640716#3 56640716#4 71197420#0 71197420#1 71197420#2 71197420#3 71197420#4 71197420#5 71197420#6"/>
</vehicle>
<vehicle id="l1410_h1_c1" type="306" depart="24">
<route edges="26732375 26732338 24784778 154771667 28042458 28042455 4015999 24784799 24784800#0 24784800#1-AddedOnRampEdge 24784800#1 24784800#1-AddedOffRampEdge 24784800#2 24784800#3-AddedOnRampEdge 24784800#3 154771680 154771699 154771699-AddedOffRampEdge 29048761#0 29048761#1-AddedOnRampEdge 29048761#1 29048761#2-AddedOnRampEdge 29048761#2 29048761#3 50033304 127513874 5122077#1 5122077#2 5122077#3 5122077#4 5122075 -9068615 -9068621 9068945 9068945-AddedOffRampEdge 54171378 -25408293 144351647 95932239#1-AddedOnRampEdge 95932239#1 -9070454 -95932245 -98643142#7 -98643142#6 -98643142#5 -98643142#4 -98643142#3 -98643142#2 -98643142#1 -98643142#0 -99713437#2 -99713437#1 -99713437#0 -95542193#1 -95542193#0 9397842#0 9397842#1 50010700#0 50010700#1 -95542180 -116567652#6 -116567652#5"/>
</vehicle>
<vehicle id="l1406_h1_c0" type="206" depart="24">
<route edges="85192877#1 85192877#1-AddedOffRampEdge 85192877#2 28006804 28006806#0 28006806#1 28006806#2-AddedOnRampEdge 28006806#2 28006806#2-AddedOffRampEdge 28006806#3 27754911 27754908#0 27754908#0-AddedOffRampEdge 27754908#1 27754908#2-AddedOnRampEdge 27754908#2 27754908#2-AddedOffRampEdge 27754908#3 27754908#4-AddedOnRampEdge 27754908#4 27754908#4-AddedOffRampEdge 42372474#0 42372474#1 73299382#3 73299382#4 73299382#5 73502674#0 73502674#1 9069577#1 9069577#2 52575532#0 52575532#1 50051451#0 50051451#1 95932243#0 95932243#1 95932237 50051544#0 50051544#1 50015351 50015356 52095278#0 52095278#1 52095278#2 52095278#3 52095278#4 137883110 50759586 50759584 50015375 25329515#0 25329515#1 55437700 138426857 32849249#0 32849249#1 32849249#2 50049298#0 50049298#1 50049298#2 50049298#3 122763197#0 122763197#1 122763197#2 122763197#3 122763197#4 127089289#0 127089289#1 127089289#2 127024373#0 127024373#1 127024372#0 127024372#1 37799044#0 37799044#1 37799044#2 127024374 127086055 9882508 49248915 71197436#0 71197436#0-AddedOffRampEdge 71197436#1 71197436#2 55444657#0 55444657#1 55444657#2 55444657#3 55444657#4 55444657#5 55444657#6 55444657#7 55444657#8 56640721 48963882#0 48963882#1 56640724#0 56640724#1 56640724#2 56640724#3 56640724#4 9041740#4 9041740#5 48977754#0 48977754#1 48977754#2 24234049#4 24234049#5 24234049#6 24234049#7 24234049#8"/>
</vehicle>
<vehicle id="resdidentialXXX_h1_c6" type="306" depart="24">
<route edges="102879247#0 102879247#1 102879247#2 -85565773 -85565778#1 -27682653#2 -27682653#1 -27682653#0 -25340085#3 -25340085#2 -25340085#1 -25340085#0 82363950#2 159139461 28364133#5 28364133#6 28364133#7 28364133#8 28364133#9 28364133#10 28364133#11 159139469 159139463#0 159139463#1 28591280#0 28591280#1 23870002#0 23870002#1 23870222#1 23870222#2 23870222#3 23871498 55685436 -23871945#1 -23871945#0 -23937512#2 -23937512#1 -23937512#0 -28432718#1 -28432718#0 -28432717 23876515#0 23876515#1 23876515#2 23876515#3 101828546#0 101828546#1 101828546#2 101828546#3 23876769#0 23876769#1 23876769#2 28047364 23621010#1 23621010#2 23621010#3 23621014 23057188#0 23057188#1 23057188#2 23057188#3 23057188#4 23057188#5 23057188#6 23057188#7 23057188#8 23057188#9 23057188#10 23057188#11 23057188#12 145894910#0 145894910#1 23899045#0 23899045#1 23899045#2 23899045#3 23899045#4 23899045#5 23899045#6 23899045#7 23899049 23899067#0 23899067#1 23899067#2 23899067#3 23899067#4 23899067#5 23899067#6 23899067#7 23899067#8 23899067#9 23899067#10 23899067#11 23899067#12 23899067#13 23899067#14 23899067#15 23899067#16 157605272 27922250#0 27922250#1 23910388#1 23910388#2 23910388#3 75621788#0 75621788#1 -138648410 -132442663#8 -132442663#7 -132442663#6 -132442663#5 -132442663#4 -132442663#3 -132442663#2 -132442663#1 -132442663#0 -75621286#2 -75621286#1 -75621286#0 75621294#0 75621294#1 88453028 25746712#0 25746712#1 25746712#2 25746712#3 -150093561 -150093552 -150093555 -150093548#2 -150093548#1 -150093548#0 150093529#3 150093529#4 -126342682#1 -126342682#0 -55891537 50769133 117794633 117794634 52836647#0 52836647#1 52836646#0 52836646#1 96681649#0 96681649#1 58482182#0 58482182#1 58482182#2 58482182#3 58482182#4 58482182#5 58482182#6 50725795#0 50725795#1 50725795#2 127024370 37799044#0 37799044#1 37799044#2 127024374 127086055 9882508 49248915 71197436#0 71197436#0-AddedOffRampEdge 71197436#1 71197436#2 55444657#0 55444657#1 55444657#2 55444657#3 55444657#4 55444657#5 55444657#6 55444657#7 55444657#8 68698455 56640718#0 56640718#1 95511899 95511885#0 95511885#1 95511885#2 95511885#3 95511885#4 95511885#5 -50649897 -37847306#3"/>
</vehicle>
<vehicle id="l1420_h1_c1" type="306" depart="31">
<route edges="24430095 24430094#0 24430094#0-AddedOffRampEdge 24430094#1 24430094#2-AddedOnRampEdge 24430094#2 24430094#2-AddedOffRampEdge 24430094#3 24430094#4-AddedOnRampEdge 24430094#4 24775113 24775112#0 24775112#0-AddedOffRampEdge 24775112#1 24477181 24477182#0 24477182#1-AddedOnRampEdge 24477182#1 27911159 4015963#0 4015963#0-AddedOffRampEdge 4015963#1 4015963#2-AddedOnRampEdge 4015963#2 4015963#2-AddedOffRampEdge 23618220 23618221 8668911 84277882 23270271#0 23270271#1 23270272#0 23270272#1 23270272#2 23270272#3 23270272#4 23270272#5 23270272#6 50047647#0 50047647#1 50047647#2 85383975#0 85383975#1 -85383979#1 -85383979#0 -41658739#1 -41658739#0 41658734 41658735#4 41658738 41658737 69991400 69991402#0 69991402#1 69991402#2"/>
</vehicle>
<vehicle id="l1410_h1_c2" type="cx" depart="36">
<route edges="26732375 26732338 24784778 154771667 28042458 28042455 4015999 24784799 24784800#0 24784800#1-AddedOnRampEdge 24784800#1 24784800#1-AddedOffRampEdge 24784800#2 24784800#3-AddedOnRampEdge 24784800#3 154771680 154771699 154771699-AddedOffRampEdge 29048761#0 29048761#1-AddedOnRampEdge 29048761#1 29048761#2-AddedOnRampEdge 29048761#2 29048761#3 50033304 127513874 5122077#1 5122077#2 5122077#3 5122077#4 5122075 -9068615 -9068621 9068945 9068945-AddedOffRampEdge 54171378 -25408293 -25408294#3 -25408294#2 -25408294#1 -25408294#0 -50760996#2 -50760996#1 -50760996#0 -9386794 -50771725#3 -50771725#2 -50771725#1 -50771725#0 -50050444#1 -50050444#0 -26576113 5122941 50771721 85427247 126475745#0 126475745#1 9278122#0 9278122#1 9278124 9278126 24387824 77698071#0 77698071#1 126475759 50012034#0 50012034#1 50012034#2 -55544124 -50012040#1 -50012040#0 -55544119#1 -55544119#0 -97223019#3 -97223019#2 -97223019#1 -97223019#0 -4823975 -52095279#1 -52095279#0 32849249#0 32849249#1 32849249#2 50049298#0 50049298#1 50049298#2 50761452 96556997#0 96556997#1 96556997#2 96556997#3 96556997#4 32923329#0 32923329#1 9067330 126320837 9382766 126320841#0 126320841#1 44678957 126320842 -26486871 52474113#0 52474113#1 52474113#2 52474113#3 52474113#4 52474113#5 52474113#6 77746961#0 77746961#1 77746961#2 -12824912#1 -12824912#0"/>
</vehicle>
<vehicle id="resdidentialXXX_h1_c9" type="206" depart="36">
<route edges="-108309340#0 24345311#2 24345311#3 24345311#4 24345309#0 24345309#1 24345309#2 24345309#3 24345309#4 24345309#5 24345309#6 24345309#7 24345309#8 24345309#9 24345309#10 24345314#0 24345314#1 24345314#2 24056807#4 24056807#0 24056807#1 -29271998#1 -29271998#0 -29271997 -33850792 -23002343 -124317399 -23002341 -124317412#1 -124317412#0 -74060059#2 -74060059#1 -74060059#0 -26493239#1 -26493239#0 -124317410#5 -124317410#4 -124317410#3 -124317410#2 -124317410#1 -124317410#0 -156650905 -124317407#3 -124317407#2 -124317407#1 -124317407#0 -156650904 -126087465 -98713998#2 -98713998#1 -98713998#0 -88442964 88442963 24408637#7 24408637#8 24408637#0 24408637#1 88442961 -126081192#2 -38747989#1 -125750517#2 -125750517#1 -125750517#0 -5017002#1 -5017002#0 -103452743#16 -103452743#15 -103452743#14 -103452743#13 -103452743#12 -103452743#11 -103452743#10 -103452743#9 -103452743#8 -103452743#7 -103452743#6 -103452743#5 -103452743#4 -103452743#3 -103452743#2 -103452743#1 -103452743#0 -64502836#1 -64502836#0 64502829 -27904788#0 -83999227#1 -83999227#0 -83999226 -83999566 -8138336#1 -8138336#0 -24411491 -111548856#5 -111548856#4 -111548856#3 -111548856#2 -111548856#1 -111548856#0 -128219962#4 -128219962#3 -128219962#2 -128219962#1 -128219962#0 -128219961 -8138335 27904791 24411492#2 24411492#3 24411492#4 24500576 -8599689 96561291 28023500#3 28023500#4 28023500#5 8599660 -86613973#2 -86613973#1 -86613973#0 -8597095 86614642#0 86614642#1 8597089#9 8597089#10 8597089#11 8597091 71122387 8656183 10929043 133398297 133398297-AddedOffRampEdge 4823594 4823594-AddedOffRampEdge 31478314 9609957 9609963#0 9609963#1 71121160#0 71121160#1 71121160#2 74889583#4 74889583#5 74889583#6 9646899#0 9646899#1 55444666#0 55444666#1 -55444665#3 -55444665#2 -55444665#1 -55444665#0 -55444669#1 -55444669#0 -8603729#4 -8603729#3 -8603729#2 -8603729#1 -8603729#0 55444663#0 55444663#1 55444663#2 55444663#3 53349141 92702829#0 92702829#1 53349134#0"/>
</vehicle>
<vehicle id="l1420_h1_t0" type="truck" depart="39">
<route edges="24430095 24430094#0 24430094#0-AddedOffRampEdge 24430094#1 24430094#2-AddedOnRampEdge 24430094#2 24430094#2-AddedOffRampEdge 24430094#3 24430094#4-AddedOnRampEdge 24430094#4 24775113 24775112#0 24775112#0-AddedOffRampEdge 24775112#1 24477181 24477182#0 24477182#1-AddedOnRampEdge 24477182#1 27911159 4015963#0 4015963#0-AddedOffRampEdge 4015963#1 4015963#2-AddedOnRampEdge 4015963#2 4015963#2-AddedOffRampEdge 4015963#3 4015963#4-AddedOnRampEdge 4015963#4 4015977#0 4015977#0-AddedOffRampEdge 4015977#1 31347492 9231763 9231792#0 9231792#0-AddedOffRampEdge 9231792#1 9095417 9095414 26750823 26750820#0 26750820#1 26750820#2-AddedOnRampEdge 26750820#2 26750820#2-AddedOffRampEdge 30767489#0 30767489#0-AddedOffRampEdge 24775357 27606502 148715736 29048761#1-AddedOnRampEdge 29048761#1 29048761#2-AddedOnRampEdge 29048761#2 9233558#0 9233558#0-AddedOffRampEdge 9233558#1 148333538 84201888 84201885 9234280 9234284 30710238 9234407#3 9234450#0 9234450#1 30709944#0 30709944#1 89081023 24755998#5 24755998#6 24755998#7 24755999 89081033 159638642 9609871 9609870#0 9609870#1 36055253 96136614#0 96136614#1 144731514#0 144731514#1 144731514#2 144731514#3 144731514#4 144731514#5 144731514#6 144731514#7 144731514#8 56760938#7 29389012 29389017 26953048 26953050#0 26953050#1 26953050#2 26953050#3 26953050#4 26953050#5 26953050#6 26953050#7 26953050#8 26953050#9 69715514 27835348#0 27835348#1 27835348#2 27835348#3 27835348#4 27835348#5"/>
</vehicle>
<vehicle id="resdidentialXXX_h1_c11" type="306" depart="39">
<route edges="111732964#4 111732964#5 111732964#6 111732964#7 111732964#8 -124176821#6 -124176821#5 -124176821#4 -124176821#3 -124176821#2 -124176821#1 -124176821#0 -35894685#6 -35894685#5 -35894685#4 -35894685#3 -35894685#2 -35894685#1 -35894685#0 124176816#0 -121252987#2 -121252987#1 -121252987#0 124176816#7 124176816#8 113716580 113716584#0 149016398 149016399 146848722 146848793 113716582 -124176828#2 -124176828#1 -124176828#0 -88130513#10 -88130513#9 -88130513#8 -88130513#7 -88130513#6 -88130513#5 -88130513#4 -88130513#3 -88130513#2 -88130513#1 -88130513#0 88130512#0 88130512#1 88130512#2 -133776602 -133776603#1 -133776603#0 -30269024 -31661733#1 -31661733#0 22914314 89876658 89876659 24788842 132430906 24788900 24788769 24788785 96564821 96564823 28296547 31478315-AddedOnRampEdge 31478315 71121158-AddedOnRampEdge 71121158 103763124 8656203 8656182 71118473 22751882 28888744 28888748 22751888 9507747 22762414 9508018 9508028 33927391 33927392 9507930 9507926 9096632 9096538 9096536 33927223 33927224 33927224-AddedOffRampEdge 31477870 27108725 27108726#0 9234587 29048761#2-AddedOnRampEdge 29048761#2 9233558#0 9233558#0-AddedOffRampEdge 9233671 24357756 24357753 50930932#0 50930932#1 84202212-AddedOnRampEdge 84202212 -45185028#1 -45185028#0 -50051458#2 -50051458#1 -50051458#0 150541467#0 150541467#1 9073009#2 9073009#3 27606556 81017975#0 81017975#1 50051461#0 50051461#1 25831062#0 25831062#1 131270115#0 131270115#1 131270115#2 131270115#3 131270115#4 131270115#5 98635235#0 98635235#1 26503736#0 26503736#1 26503736#2 131270123#0 -131270122#1 -131270119 131270121#1 -131270123#1 -131270123#0 -26503736#2 -26503736#1 -26503736#0 -98635235#1"/>
</vehicle>
<vehicle id="resdidentialXXX_h1_c12" type="206" depart="39">
<route edges="-148214380#2 -148214380#1 -148214380#0 148214408#2 -29901040#2 -29901040#1 -29901040#0 -55807148#0 -62145156 -90879774 -90879777 -24059705 6073888#0 6073888#1 29733364#0 29733364#1 29733364#2 24190402 -9813712 -98711404#1 -98711404#0 -144083630#2 -144083630#1 -144083630#0 88714959 24008493#4 24008493#5 24008493#0 88714962 88714961 98711410 156192046 156338689 154937993#0 154937993#1 118809066#0 118809066#1 118809066#2 118809066#3 118809066#4 118809066#5 118809066#6 118809066#7 154937990#0 154937990#1 154937992 156192068 87310561 22768826 87310562 143027142#0 143027142#1-AddedOnRampEdge 143027142#1 28103896 28103898 28103892#1-AddedOnRampEdge 28103892#1 133400528 133399991 25049082 25049081#0 25049081#1-AddedOnRampEdge 25049081#1 25049044 25049046 133399906 133399559 29903392 26610343#0 26610343#1 64523910 64523916#0 64523916#1-AddedOnRampEdge 64523916#1 133399223 38727246 30143811#0 30143811#0-AddedOffRampEdge 30143811#1 30143811#2 30143811#3 76404743-AddedOnRampEdge 76404743 76404743-AddedOffRampEdge 143779396 24280639#1 24788792 24788790 24788835 24788836 143779398 -31661733#1 -31661733#0 -79126719#1 -79126719#0 -80015627#6 -80015627#5 -80015627#4 -80015627#3 -80015627#2 -80015627#1 -80015627#0 -45245282 -50044764#5 -50044764#4 -50044764#3 -50044764#2 -50044764#1 -50044764#0 -122821219#1 -122821219#0 -151832497 -28959333 -118876578 -95542195 -82886417#1 -82886417#0 -82886386#1 -82886386#0 -24457063#1 -24457063#0 30269188#0 30269188#1 82886369#0 82886369#1 -150093542#14 -150093542#13 -150093542#12 -150093542#11 -150093542#10 -150093542#9"/>
</vehicle>
<vehicle id="resdidentialXXX_h1_c13" type="206" depart="39">
<route edges="24559165#1 24559165#2 24559165#3 84680018 84630199 24795380 24441491#3 24441491#4 24441491#5 36874674 36874675 84977505#0 84977505#1 85637261#0 24409064 24429978#3-AddedOnRampEdge 24429978#3 24417704 24417705 85192880 24419511 92838677#0 92838677#0-AddedOffRampEdge 92838677#1 28914434#0 28914434#1 24985735 93451683#0 93451683#1 93942134 93942137 23748165 98751217#0-AddedOnRampEdge 98751217#0 98751217#1-AddedOnRampEdge 98751217#1 52497561 52497560#0 52497560#1 52497560#2-AddedOnRampEdge 52497560#2 4294158 27860223 27860224#0 27860224#1-AddedOnRampEdge 27860224#1 28006725 28006726#0 28006726#1 85192877#0 85192877#1-AddedOnRampEdge 85192877#1 85192877#1-AddedOffRampEdge 85192877#2 28006804 28006806#0 28006806#1 28006806#2-AddedOnRampEdge 28006806#2 28006806#2-AddedOffRampEdge 28006806#3 27754911 27754908#0 27754908#0-AddedOffRampEdge 27754908#1 27754908#2-AddedOnRampEdge 27754908#2 27754908#2-AddedOffRampEdge 27754908#3 27754908#4-AddedOnRampEdge 27754908#4 27754908#4-AddedOffRampEdge 42372474#0 42372474#1 73299382#3 73299382#4 73299382#5 73502674#0 73502674#1 9069577#1 9069577#2 52575532#0 52575532#1 50051451#0 50051451#1 95932243#0 95932243#1 95932237 50051544#0 50051544#1 50015351 50015356 52095278#0 52095278#1 52095278#2 52095278#3 52095278#4 137883110 50759586 50759584 50015375 25329515#0 25329515#1 55437700 138426857 32849249#0 32849249#1 32849249#2 50049298#0 50049298#1 50049298#2 50049298#3 122763197#0 122763197#1 122763197#2 122763197#3 122763197#4 127089289#0 127089289#1 127089289#2 127024373#0 127024373#1 127024372#0 127024372#1 37799044#0 37799044#1 37799044#2 127024374 127086055 9882508 49248915 71197436#0 71197436#0-AddedOffRampEdge 71197436#1 71197436#2 55444657#0 55444657#1 55444657#2 55444657#3 55444657#4 55444657#5 55444657#6 55444657#7 55444657#8 56640721 56640726#0 56640726#1 56640726#2 56640726#3 48962303#0 48962303#1 56640730 34219190 56645302 56640716#0 56640716#1 56640716#2 56640716#3 56640716#4 71197420#0 71197420#1 71197420#2 -41173683#2 -41173683#1 -41173683#0 48962542#1 48962542#2"/>
</vehicle>
<vehicle id="l1410_h1_t0" type="truck" depart="42">
<route edges="26732375 26732338 24784778 154771667 28042458 28042455 4015999 24784799 24784800#0 24784800#1-AddedOnRampEdge 24784800#1 24784800#1-AddedOffRampEdge 24784800#2 24784800#3-AddedOnRampEdge 24784800#3 154771680 154771699 154771699-AddedOffRampEdge 29048761#0 29048761#1-AddedOnRampEdge 29048761#1 29048761#2-AddedOnRampEdge 29048761#2 29048761#3 50033304 127513874 5122077#1 5122077#2 5122077#3 5122077#4 5122075 -9068615 -9068621 9068945 9068945-AddedOffRampEdge 54171378 -25408293 -25408294#3 -25408294#2 -25408294#1 -25408294#0 -50760996#2 -50760996#1 -50760996#0 -9386794 -50771725#3 -50771725#2 -50771725#1 -50771725#0 -50050444#1 -50050444#0 -26576113 5122941 50771721 85427247 126475745#0 126475745#1 9278122#0 9278122#1 9278124 9278126 24387824 52570489 24387830#1 52065179 9067089#0 9067089#1 4065736#0 4065736#1 4065736#2 4065736#3 4065736#4 9067420#0 9067420#1 9067420#2 127089289#0 127089289#1 127089289#2 127024373#0 127024373#1 127024372#0 127024372#1 37799044#0 37799044#1 37799044#2 127024374 127086055 9882508 49248915 71197436#0 71197436#0-AddedOffRampEdge 71197436#1 71197436#2 55444657#0 55444657#1 55444657#2 -48962497#4 -48962497#3 125051717#3 125051717#4 125051717#5 125051717#6"/>
</vehicle>
<vehicle id="l1430_h1_c0" type="306" depart="45">
<route edges="136969008 29901915 29901909 133400530#0 133400530#0-AddedOffRampEdge 133400530#1 28103893 28103892#0 28103892#1-AddedOnRampEdge 28103892#1 133400528 133399991 25049082 25049081#0 25049081#1-AddedOnRampEdge 25049081#1 25049044 25049046 133399906 133399559 29903392 26610343#0 26610343#1 64523910 64523916#0 64523916#1-AddedOnRampEdge 64523916#1 133399223 38727246 30143811#0 30143811#0-AddedOffRampEdge 30143811#1 30143811#2 30143811#3 76404743-AddedOnRampEdge 76404743 76404743-AddedOffRampEdge 138950670 138950670-AddedOffRampEdge 74889579 31478315-AddedOnRampEdge 31478315 71121158-AddedOnRampEdge 71121158 103763124 8656203 8656182 8597090 8597089#1 8597089#2 8597089#3 26576348 83063516 107476941 107476943#0 107476943#1 96564820 9197491 -126511825 -9197495 9197492#2 9197492#3 9207507#0 9207507#1 9207507#2 9207507#3 9207507#4 9207507#5 -8899940#20 -8899940#19 -8899940#18 -8899940#17 -8899940#16 -8899940#15 -8899940#14 -8899940#13 -8899940#12 -8899940#11 -8899940#10 -8899940#9 -8899940#8 -8899940#7 -8899940#6 -8899940#5 -159538711 8899947 -8899940#1 -8899940#0 -8899949 9238884#0 9238884#1 9238884#2 9238884#3 9238884#4 161784437#0 161784437#1 161784437#2 161784444 9245288#0 9245288#1 -161784445#4 -161784445#3 -161784445#2 -161784445#1 -161784445#0 -144803477 -9238928#1 -9238928#0 -82886409#2 -82886409#1 -82886409#0 -50045836#1 -50045836#0 -83059658#1 -83059658#0 -83059666 -86614625#5 -86614625#4 -86614625#3 -86614625#2 -86614625#1 -86614625#0 -8956512#6 -8956512#5 -8956512#4"/>
</vehicle>
<vehicle id="l1420_h1_c2" type="porsche" depart="46">
<route edges="24430095 24430094#0 24430094#0-AddedOffRampEdge 24430094#1 24430094#2-AddedOnRampEdge 24430094#2 24430094#2-AddedOffRampEdge 24430094#3 24430094#4-AddedOnRampEdge 24430094#4 24775113 24775112#0 24775112#0-AddedOffRampEdge 24775112#1 24477181 24477182#0 24477182#1-AddedOnRampEdge 24477182#1 27911159 4015963#0 4015963#0-AddedOffRampEdge 4015963#1 4015963#2-AddedOnRampEdge 4015963#2 4015963#2-AddedOffRampEdge 23618220 23618221 8668911 84277882 23270271#0 23270271#1 23270272#0 23270272#1 23270272#2 23270272#3 23270272#4 23270272#5 23270272#6 50047647#0 50047647#1 50047647#2 85383975#0 85383975#1 94661903#0 94661903#1 85383977#0 85383977#1"/>
</vehicle>
<vehicle id="l1410_h1_c3" type="twingo" depart="48">
<route edges="26732375 26732338 24784778 154771667 28042458 28042455 4015999 24784799 24784800#0 24784800#1-AddedOnRampEdge 24784800#1 24784800#1-AddedOffRampEdge 24784800#2 24784800#3-AddedOnRampEdge 24784800#3 154771680 154771699 154771699-AddedOffRampEdge 29048761#0 29048761#1-AddedOnRampEdge 29048761#1 29048761#2-AddedOnRampEdge 29048761#2 29048761#3 50033304 127513874 5122077#1 5122077#2 5122077#3 5122077#4 5122075 -9068615 -9068621 9068945 9068945-AddedOffRampEdge 54171378 -25408293 -25408294#3 -25408294#2 -25408294#1 -25408294#0 -50760996#2 -50760996#1 -50760996#0 -9386794 -50771725#3 -50771725#2 -50771725#1 -50771725#0 -50050444#1 -50050444#0 -26576113 5122941 50771721 85427247 126475745#0 126475745#1 9278122#0 9278122#1 9278124 9278126 24387824 52570489 24387830#1 52065179 9067089#0 9067089#1 4065736#0 4065736#1 4065736#2 4065736#3 4065736#4 9067420#0 9067420#1 9067420#2 127089289#0 127089289#1 127089289#2 127024373#0 127024373#1 127024372#0 127024372#1 37799044#0 37799044#1 37799044#2 127024374 127086055 9882508 49248915 71197436#0 71197436#0-AddedOffRampEdge 71197436#1 71197436#2 55444657#0 55444657#1 55444657#2 55444657#3 55444657#4 55444657#5 55444657#6 55444657#7 55444657#8 56640721 48963882#0 48963882#1 56640724#0 56640724#1 56640724#2 56640724#3 56640724#4 9041740#4 9041414#0 9041414#1 9041414#2 9041414#3 9041414#4 9041414#5 9041414#6 125018473#0 125018473#1 125018473#2"/>
</vehicle>
<vehicle id="l1406_h1_c1" type="306" depart="49">
<route edges="85192877#1 85192877#1-AddedOffRampEdge 85192877#2 28006804 28006806#0 28006806#1 28006806#2-AddedOnRampEdge 28006806#2 28006806#2-AddedOffRampEdge 28006806#3 27754911 27754908#0 27754908#0-AddedOffRampEdge 27754908#1 27754908#2-AddedOnRampEdge 27754908#2 27754908#2-AddedOffRampEdge 27754908#3 27754908#4-AddedOnRampEdge 27754908#4 27754908#4-AddedOffRampEdge 42372474#0 42372474#1 73299382#3 73299382#4 73299382#5 73502674#0 73502674#1 9069577#1 9069577#2 52575532#0 52575532#1 50051451#0 50051451#1 95932243#0 95932243#1 95932237 50051544#0 50051544#1 50015351 50015356 52095278#0 52095278#1 52095278#2 52095278#3 52095278#4 137883110 50759586 50759584 50015375 25329515#0 25329515#1 55437700 138426857 32849249#0 32849249#1 32849249#2 50049298#0 50049298#1 50049298#2 50049298#3 122763197#0 122763197#1 122763197#2 122763197#3 122763197#4 127089289#0 127089289#1 127089289#2 127024373#0 127024373#1 127024372#0 127024372#1 37799044#0 37799044#1 37799044#2 127024374 127086055 9882508 49248915 71197436#0 71197436#0-AddedOffRampEdge 71197436#1 71197436#2 55444657#0 55444657#1 55444657#2 55444657#3 55444657#4 55444657#5 55444657#6 55444657#7 55444657#8 56640721 48963882#0 48963882#1 56640724#0 56640724#1 56640724#2 56640724#3 56640724#4 9041740#4 9041414#0 9041414#1 9041414#2 9041414#3 9041414#4 9041414#5 9041414#6 125018473#0 125018473#1 125018473#2 125018473#3 125018473#4 125018473#5"/>
</vehicle>
<vehicle id="l1410_h1_c4" type="cx" depart="60">
<route edges="26732375 26732338 24784778 154771667 28042458 28042455 4015999 24784799 24784800#0 24784800#1-AddedOnRampEdge 24784800#1 24784800#1-AddedOffRampEdge 24784800#2 24784800#3-AddedOnRampEdge 24784800#3 154771680 154771699 154771699-AddedOffRampEdge 9094255 9094255-AddedOffRampEdge 4015958 24357741 24357742 24837458 24837459#0 24837459#1-AddedOnRampEdge 24837459#1 28260960-AddedOnRampEdge 28260960 28362447#0 28362447#0-AddedOffRampEdge 9095983 26750812 26750814 9095392#1-AddedOnRampEdge 9095392#1 27754908#4-AddedOnRampEdge 27754908#4 27754908#4-AddedOffRampEdge 42372474#0 73305691 73305690#1 73501286 73305694 -32520842#2 -32520842#1 -32520842#0 -130792504 -110554823#1 -110554823#0 -26835178#1"/>
</vehicle>
<vehicle id="l1420_h1_c3" type="206" depart="62">
<route edges="24430095 24430094#0 24430094#0-AddedOffRampEdge 24430094#1 24430094#2-AddedOnRampEdge 24430094#2 24430094#2-AddedOffRampEdge 24430094#3 24430094#4-AddedOnRampEdge 24430094#4 24775113 24775112#0 24775112#0-AddedOffRampEdge 24775112#1 24477181 24477182#0 24477182#1-AddedOnRampEdge 24477182#1 27911159 4015963#0 4015963#0-AddedOffRampEdge 4015963#1 4015963#2-AddedOnRampEdge 4015963#2 4015963#2-AddedOffRampEdge 4015963#3 4015963#4-AddedOnRampEdge 4015963#4 4015977#0 4015977#0-AddedOffRampEdge 9231977 -160418339 -114297212 9231634#0 9231634#1 -24939829#8 -24939829#7 -24939829#6 -24939829#5 -24939829#4 -24939829#3 -24939856#1 -24939856#0 -24939863 -50017569#4 -50017569#3 -50017569#2 -50017569#1 -50017569#0 -79232989#1 -79232989#0 27467400 9230578#4 79232987 -95510758#3 -95510758#2 -95510758#1 -95510758#0 -73499031 73301439 73299382#1 73299382#2 73299382#3 73299382#4 73299382#5 73502674#0 73502674#1 9069577#1 9069577#2 52575532#0 52575532#1 50051451#0 50051451#1 50051475#0 50051475#1 9069460 58880035 23269994#0 23269994#1 23269994#2 23269994#3 23269994#4 23269994#5 30985330#0 30985330#1 30985330#2 30985330#3 30985330#4 30985330#5 30985330#6 30985324 50771726#0 50050437 30985342#0 30985342#1 30985342#2 24789323#2 50011465"/>
</vehicle>
<vehicle id="resdidentialXXX_h1_c21" type="206" depart="62">
<route edges="60709939#1 -60709928#1 -60709928#0 -36854036#1 -36854045 -60709939#0 -36854040 -60709923#1 -60709923#0 -25556742 -155414582#9 -155414582#8 -155414582#7 -155414582#6 -155414582#5 -155414582#4 -155414582#3 -155414582#2 -155414582#1 -155414582#0 -28439244#2 -28439244#1 -28439244#0 -28439249 -5018579#3 -5018579#2 -5018579#1 -5018579#0 24408634#16 28012977 5017832#5 13012043 67068602#0 -8138413+67068602#1 67068602#2 67068602#3 98422472#0 98422472#1 98422472#2 98422472#3 98422472#4 98422472#5 138459438#0 4277604 67068601-AddedOnRampEdge 67068601 64523914 64502832 64523916#1-AddedOnRampEdge 64523916#1 133399223 38727246 30143811#0 30143811#0-AddedOffRampEdge 30143811#1 30143811#2 30143811#3 76404743-AddedOnRampEdge 76404743 76404743-AddedOffRampEdge 138950670 138950670-AddedOffRampEdge 74889579 31478315-AddedOnRampEdge 31478315 71121158-AddedOnRampEdge 71121158 103763124 8656203 8656182 71118473 22751882 28888744 28888748 22751888 9507747 22762414 9508018 9508028 33927391 33927392 9507930 9507926 9096632 9096538 9096536 33927223 33927224 33927224-AddedOffRampEdge 31477870 27108725 27108726#0 27108726#1 9405308 9405315 28260960-AddedOnRampEdge 28260960 28362447#0 28362447#0-AddedOffRampEdge 28362447#1 26750827 26750825 26750729 26750733#0 26750733#1 26750733#2-AddedOnRampEdge 26750733#2 9231784 9231748 9232022 -114297212 9231634#0 9231634#1 -24939829#8 -24939829#7 -24939829#6 -117122298#1"/>
</vehicle>
<vehicle id="resdidentialXXX_h1_c22" type="206" depart="62">